<?xml version="1.0" encoding="UTF-8"?>

<!-- generated on 2024-05-17 23:22:13.674835 by osmWebWizard.py UNKNOWN
<configuration>
    <net-file value="/home/mrprodigy/Documents/GP/nets/uni-area/2024-05-17-23-22-10/osm.net.xml.gz"/>
    <output-trip-file value="/home/mrprodigy/Documents/GP/nets/uni-area/2024-05-17-23-22-10/osm.passenger.trips.xml"/>
    <route-file value="/home/mrprodigy/Documents/GP/nets/uni-area/2024-05-17-23-22-10/osm.passenger.rou.xml"/>
    <prefix value="veh"/>
    <trip-attributes value="departLane=&quot;best&quot;"/>
    <fringe-start-attributes value="departSpeed=&quot;max&quot;"/>
    <vehicle-class value="passenger"/>
    <lanes value="True"/>
    <fringe-factor value="9"/>
    <allow-fringe.min-length value="1000.0"/>
    <via-edge-types value="highway.motorway,highway.motorway_link,highway.trunk_link,highway.primary_link,highway.secondary_link,highway.tertiary_link"/>
    <min-distance value="300.0"/>
    <min-distance.fringe value="10.0"/>
    <remove-loops value="True"/>
    <validate value="True"/>
    <insertion-density value="60.0"/>
</configuration>
-->

<!-- generated on 2024-05-17 23:22:13 by Eclipse SUMO duarouter Version 1.20.0
<configuration xmlns:xsi="http://www.w3.org/2001/XMLSchema-instance" xsi:noNamespaceSchemaLocation="http://sumo.dlr.de/xsd/duarouterConfiguration.xsd">

    <input>
        <net-file value="/home/mrprodigy/Documents/GP/nets/uni-area/2024-05-17-23-22-10/osm.net.xml.gz"/>
        <route-files value="/home/mrprodigy/Documents/GP/nets/uni-area/2024-05-17-23-22-10/osm.passenger.trips.xml"/>
    </input>

    <output>
        <output-file value="/home/mrprodigy/Documents/GP/nets/uni-area/2024-05-17-23-22-10/osm.passenger.trips.xml.tmp"/>
        <alternatives-output value="NUL"/>
        <write-trips value="true"/>
    </output>

    <processing>
        <remove-loops value="true"/>
    </processing>

    <time>
        <begin value="0.0"/>
        <end value="3600.0"/>
    </time>

    <report>
        <no-warnings value="true"/>
        <ignore-errors value="true"/>
        <no-step-log value="true"/>
    </report>

</configuration>
-->

<routes xmlns:xsi="http://www.w3.org/2001/XMLSchema-instance" xsi:noNamespaceSchemaLocation="http://sumo.dlr.de/xsd/routes_file.xsd">
    <vType id="veh_passenger" vClass="passenger"/>
    <trip id="veh0" type="veh_passenger" depart="0.00" departLane="best" from="684452062" to="-152376326"/>
    <trip id="veh1" type="veh_passenger" depart="0.39" departLane="best" from="151789411" to="151789417#0"/>
    <trip id="veh2" type="veh_passenger" depart="0.78" departLane="best" departSpeed="max" from="685485410#0" to="684472053#0"/>
    <trip id="veh4" type="veh_passenger" depart="1.56" departLane="best" from="30183033" to="-154583820#0"/>
    <trip id="veh5" type="veh_passenger" depart="1.95" departLane="best" departSpeed="max" from="150834527" to="51215358#2"/>
    <trip id="veh6" type="veh_passenger" depart="2.34" departLane="best" from="-152560179" to="151789401#0"/>
    <trip id="veh7" type="veh_passenger" depart="2.73" departLane="best" from="684469027#1" to="673988900"/>
    <trip id="veh8" type="veh_passenger" depart="3.12" departLane="best" departSpeed="max" from="150834527" to="684410265"/>
    <trip id="veh10" type="veh_passenger" depart="3.91" departLane="best" departSpeed="max" from="685510362" to="684615389"/>
    <trip id="veh11" type="veh_passenger" depart="4.30" departLane="best" departSpeed="max" from="154583820#0" to="150269182"/>
    <trip id="veh12" type="veh_passenger" depart="4.69" departLane="best" from="692294089#1" to="155409954#1"/>
    <trip id="veh13" type="veh_passenger" depart="5.08" departLane="best" from="-688420810" to="1018489598"/>
    <trip id="veh16" type="veh_passenger" depart="6.25" departLane="best" departSpeed="max" from="672178561" to="704941090"/>
    <trip id="veh17" type="veh_passenger" depart="6.64" departLane="best" from="154584038#3" to="673988900"/>
    <trip id="veh20" type="veh_passenger" depart="7.81" departLane="best" departSpeed="max" from="684615388" to="-155410061"/>
    <trip id="veh21" type="veh_passenger" depart="8.20" departLane="best" departSpeed="max" from="150834527" to="154584038#3-AddedOffRampEdge"/>
    <trip id="veh22" type="veh_passenger" depart="8.59" departLane="best" departSpeed="max" from="-673550703" to="151790535#0"/>
    <trip id="veh24" type="veh_passenger" depart="9.37" departLane="best" from="684452062" to="380776620#3"/>
    <trip id="veh25" type="veh_passenger" depart="9.77" departLane="best" from="154584038#1" to="151789415"/>
    <trip id="veh26" type="veh_passenger" depart="10.16" departLane="best" from="151789401#0" to="692291781"/>
    <trip id="veh27" type="veh_passenger" depart="10.55" departLane="best" from="684469027#0" to="684422002#4"/>
    <trip id="veh30" type="veh_passenger" depart="11.72" departLane="best" from="684258287#1" to="684473300-AddedOnRampEdge"/>
    <trip id="veh32" type="veh_passenger" depart="12.50" departLane="best" departSpeed="max" from="150834527" to="-154583820#0"/>
    <trip id="veh33" type="veh_passenger" depart="12.89" departLane="best" departSpeed="max" from="150834527" to="704877678#0"/>
    <trip id="veh34" type="veh_passenger" depart="13.28" departLane="best" from="688430088#0" to="155112428#1"/>
    <trip id="veh35" type="veh_passenger" depart="13.67" departLane="best" from="684469027#1-AddedOffRampEdge" to="380777345#8"/>
    <trip id="veh37" type="veh_passenger" depart="14.45" departLane="best" departSpeed="max" from="684258300" to="152376313#1"/>
    <trip id="veh38" type="veh_passenger" depart="14.84" departLane="best" from="684391952" to="692255141"/>
    <trip id="veh39" type="veh_passenger" depart="15.23" departLane="best" departSpeed="max" from="155247468#0" to="151789417#0"/>
    <trip id="veh41" type="veh_passenger" depart="16.02" departLane="best" from="-685488039" to="-155410061"/>
    <trip id="veh42" type="veh_passenger" depart="16.41" departLane="best" from="137280867#0" to="684452061"/>
    <trip id="veh43" type="veh_passenger" depart="16.80" departLane="best" departSpeed="max" from="685510362" to="380777345#9-AddedOnRampEdge"/>
    <trip id="veh44" type="veh_passenger" depart="17.19" departLane="best" departSpeed="max" from="-155409960#2" to="380776620#3"/>
    <trip id="veh46" type="veh_passenger" depart="17.97" departLane="best" from="704877678#1" to="689019916#1"/>
    <trip id="veh47" type="veh_passenger" depart="18.36" departLane="best" from="-151789398" to="685453199#3-AddedOffRampEdge"/>
    <trip id="veh48" type="veh_passenger" depart="18.75" departLane="best" from="684469728#0" to="673988900"/>
    <trip id="veh49" type="veh_passenger" depart="19.14" departLane="best" from="137280867#2" to="380778981#3-AddedOnRampEdge"/>
    <trip id="veh50" type="veh_passenger" depart="19.53" departLane="best" from="380778981#3-AddedOffRampEdge" to="704877679"/>
    <trip id="veh51" type="veh_passenger" depart="19.92" departLane="best" from="688430089#1" to="152376313#1"/>
    <trip id="veh53" type="veh_passenger" depart="20.70" departLane="best" from="690741023" to="689019920#2"/>
    <trip id="veh54" type="veh_passenger" depart="21.09" departLane="best" from="-688420810" to="684469027#1"/>
    <trip id="veh56" type="veh_passenger" depart="21.87" departLane="best" from="685488039" to="673988900"/>
    <trip id="veh57" type="veh_passenger" depart="22.27" departLane="best" from="685497198#2-AddedOffRampEdge" to="673550703"/>
    <trip id="veh58" type="veh_passenger" depart="22.66" departLane="best" departSpeed="max" from="-1076066931" to="155247508"/>
    <trip id="veh62" type="veh_passenger" depart="24.22" departLane="best" from="688996753" to="704877678#1"/>
    <trip id="veh63" type="veh_passenger" depart="24.61" departLane="best" departSpeed="max" from="-673550703" to="40117801"/>
    <trip id="veh64" type="veh_passenger" depart="25.00" departLane="best" from="-672150797#2" to="685497198#1"/>
    <trip id="veh66" type="veh_passenger" depart="25.78" departLane="best" from="380778995#2-AddedOnRampEdge" to="673988900"/>
    <trip id="veh68" type="veh_passenger" depart="26.56" departLane="best" departSpeed="max" from="150269175" to="155074923#0"/>
    <trip id="veh71" type="veh_passenger" depart="27.73" departLane="best" from="137280867#2-AddedOnRampEdge" to="151789417#0"/>
    <trip id="veh72" type="veh_passenger" depart="28.12" departLane="best" departSpeed="max" from="154583820#0" to="380778983#0"/>
    <trip id="veh73" type="veh_passenger" depart="28.52" departLane="best" departSpeed="max" from="150834527" to="151789417#0"/>
    <trip id="veh75" type="veh_passenger" depart="29.30" departLane="best" departSpeed="max" from="150834527" to="692088076"/>
    <trip id="veh79" type="veh_passenger" depart="30.86" departLane="best" from="692242073#0" to="684258287#1"/>
    <trip id="veh80" type="veh_passenger" depart="31.25" departLane="best" from="380778995#2-AddedOffRampEdge" to="686906179"/>
    <trip id="veh82" type="veh_passenger" depart="32.03" departLane="best" from="-692255923" to="380778981#3-AddedOffRampEdge"/>
    <trip id="veh83" type="veh_passenger" depart="32.42" departLane="best" from="380776620#1" to="380778997#5"/>
    <trip id="veh84" type="veh_passenger" depart="32.81" departLane="best" from="685453199#3" to="684472052#0"/>
    <trip id="veh86" type="veh_passenger" depart="33.59" departLane="best" departSpeed="max" from="155247468#0" to="155409960#0"/>
    <trip id="veh88" type="veh_passenger" depart="34.37" departLane="best" departSpeed="max" from="149966685#0" to="380778995#1"/>
    <trip id="veh90" type="veh_passenger" depart="35.16" departLane="best" from="150834553#0" to="692288991#1"/>
    <trip id="veh92" type="veh_passenger" depart="35.94" departLane="best" from="684057565#0" to="422905697#2"/>
    <trip id="veh94" type="veh_passenger" depart="36.72" departLane="best" from="704877677" to="692288991#1"/>
    <trip id="veh96" type="veh_passenger" depart="37.50" departLane="best" from="40117800" to="151789417#0"/>
    <trip id="veh100" type="veh_passenger" depart="39.06" departLane="best" from="380778981#3-AddedOnRampEdge" to="380777345#9-AddedOnRampEdge"/>
    <trip id="veh102" type="veh_passenger" depart="39.84" departLane="best" from="684254668#1" to="685453199#3"/>
    <trip id="veh104" type="veh_passenger" depart="40.62" departLane="best" from="704877677" to="684266490"/>
    <trip id="veh105" type="veh_passenger" depart="41.02" departLane="best" from="672186846#0" to="685485411#2"/>
    <trip id="veh106" type="veh_passenger" depart="41.41" departLane="best" departSpeed="max" from="-155409960#2" to="684391950#1"/>
    <trip id="veh108" type="veh_passenger" depart="42.19" departLane="best" from="149818478#2" to="704941090"/>
    <trip id="veh109" type="veh_passenger" depart="42.58" departLane="best" departSpeed="max" from="-673550703" to="151789397#0"/>
    <trip id="veh110" type="veh_passenger" depart="42.97" departLane="best" from="684410265" to="684472052#0"/>
    <trip id="veh111" type="veh_passenger" depart="43.36" departLane="best" from="150834541#1" to="137280867#2-AddedOffRampEdge"/>
    <trip id="veh112" type="veh_passenger" depart="43.75" departLane="best" from="689019919#0" to="151790535#0"/>
    <trip id="veh113" type="veh_passenger" depart="44.14" departLane="best" from="188529221#1" to="684391950#1"/>
    <trip id="veh114" type="veh_passenger" depart="44.53" departLane="best" departSpeed="max" from="659377550" to="692291781"/>
    <trip id="veh115" type="veh_passenger" depart="44.92" departLane="best" departSpeed="max" from="150269175" to="685453199#0-AddedOnRampEdge"/>
    <trip id="veh116" type="veh_passenger" depart="45.31" departLane="best" from="150834541#3-AddedOnRampEdge" to="380777345#8"/>
    <trip id="veh118" type="veh_passenger" depart="46.09" departLane="best" departSpeed="max" from="152376385" to="685488039"/>
    <trip id="veh122" type="veh_passenger" depart="47.66" departLane="best" from="689019914#0" to="689183218#1"/>
    <trip id="veh123" type="veh_passenger" depart="48.05" departLane="best" from="154584038#1" to="150269182"/>
    <trip id="veh128" type="veh_passenger" depart="50.00" departLane="best" from="684469028#0" to="692291782#1"/>
    <trip id="veh129" type="veh_passenger" depart="50.39" departLane="best" departSpeed="max" from="149818478#0" to="137280867#2-AddedOffRampEdge"/>
    <trip id="veh131" type="veh_passenger" depart="51.17" departLane="best" from="151789401#2" to="684422002#2"/>
    <trip id="veh133" type="veh_passenger" depart="51.95" departLane="best" from="684452061" to="-152376326"/>
    <trip id="veh134" type="veh_passenger" depart="52.34" departLane="best" from="40117800-AddedOffRampEdge" to="692088076"/>
    <trip id="veh137" type="veh_passenger" depart="53.52" departLane="best" departSpeed="max" from="-1076066931" to="685497198#2-AddedOnRampEdge"/>
    <trip id="veh138" type="veh_passenger" depart="53.91" departLane="best" from="684452062" to="152376313#0-AddedOffRampEdge"/>
    <trip id="veh139" type="veh_passenger" depart="54.30" departLane="best" departSpeed="max" from="685485410#0" to="673988900"/>
    <trip id="veh142" type="veh_passenger" depart="55.47" departLane="best" from="689183220#0" to="673988900"/>
    <trip id="veh145" type="veh_passenger" depart="56.64" departLane="best" from="152376326" to="692068752#3"/>
    <trip id="veh146" type="veh_passenger" depart="57.03" departLane="best" departSpeed="max" from="685510362" to="689019916#1"/>
    <trip id="veh147" type="veh_passenger" depart="57.42" departLane="best" from="689168419#2" to="151789417#0"/>
    <trip id="veh148" type="veh_passenger" depart="57.81" departLane="best" from="150834553#0" to="1076066931"/>
    <trip id="veh149" type="veh_passenger" depart="58.20" departLane="best" from="685497198#2-AddedOffRampEdge" to="689695753#2"/>
    <trip id="veh150" type="veh_passenger" depart="58.59" departLane="best" from="-155409960#0" to="684452059#0"/>
    <trip id="veh151" type="veh_passenger" depart="58.98" departLane="best" from="149818478#1" to="692288991#1"/>
    <trip id="veh152" type="veh_passenger" depart="59.37" departLane="best" from="688420317#0" to="704941090"/>
    <trip id="veh153" type="veh_passenger" depart="59.77" departLane="best" from="685510362-AddedOffRampEdge" to="689184240"/>
    <trip id="veh154" type="veh_passenger" depart="60.16" departLane="best" from="-152376326" to="685485411#2"/>
    <trip id="veh155" type="veh_passenger" depart="60.55" departLane="best" from="152560146" to="692291781"/>
    <trip id="veh156" type="veh_passenger" depart="60.94" departLane="best" departSpeed="max" from="685510362" to="689019919#0"/>
    <trip id="veh157" type="veh_passenger" depart="61.33" departLane="best" departSpeed="max" from="685510362" to="1076066931"/>
    <trip id="veh158" type="veh_passenger" depart="61.72" departLane="best" from="688420809#3-AddedOnRampEdge" to="689019915#0"/>
    <trip id="veh159" type="veh_passenger" depart="62.11" departLane="best" departSpeed="max" from="150834527" to="687156348#2"/>
    <trip id="veh160" type="veh_passenger" depart="62.50" departLane="best" from="380778983#2" to="155074912"/>
    <trip id="veh161" type="veh_passenger" depart="62.89" departLane="best" departSpeed="max" from="685510362" to="151789425"/>
    <trip id="veh163" type="veh_passenger" depart="63.67" departLane="best" from="152376385-AddedOffRampEdge" to="689019919#0"/>
    <trip id="veh164" type="veh_passenger" depart="64.06" departLane="best" from="704877677" to="154584038#2"/>
    <trip id="veh165" type="veh_passenger" depart="64.45" departLane="best" from="684469026#0" to="380777345#9"/>
    <trip id="veh167" type="veh_passenger" depart="65.23" departLane="best" from="692242073#2" to="137280867#2-AddedOffRampEdge"/>
    <trip id="veh168" type="veh_passenger" depart="65.62" departLane="best" from="704877678#1" to="150834550#1"/>
    <trip id="veh169" type="veh_passenger" depart="66.02" departLane="best" departSpeed="max" from="692295170" to="152376351"/>
    <trip id="veh170" type="veh_passenger" depart="66.41" departLane="best" from="137280867#0" to="380778981#3-AddedOnRampEdge"/>
    <trip id="veh171" type="veh_passenger" depart="66.80" departLane="best" from="380777345#0" to="155112428#1"/>
    <trip id="veh172" type="veh_passenger" depart="67.19" departLane="best" from="684422002#1-AddedOffRampEdge" to="51215358#2"/>
    <trip id="veh173" type="veh_passenger" depart="67.58" departLane="best" from="155074902" to="684264397#1"/>
    <trip id="veh174" type="veh_passenger" depart="67.97" departLane="best" from="151789397#0" to="685453195"/>
    <trip id="veh175" type="veh_passenger" depart="68.36" departLane="best" departSpeed="max" from="-1076066931" to="692288991#1"/>
    <trip id="veh178" type="veh_passenger" depart="69.53" departLane="best" from="684469028#0" to="155409954#0"/>
    <trip id="veh179" type="veh_passenger" depart="69.92" departLane="best" departSpeed="max" from="152376385" to="688420809#3-AddedOnRampEdge"/>
    <trip id="veh181" type="veh_passenger" depart="70.70" departLane="best" from="152376360" to="380777345#9"/>
    <trip id="veh183" type="veh_passenger" depart="71.48" departLane="best" departSpeed="max" from="149818478#0" to="380777345#9"/>
    <trip id="veh184" type="veh_passenger" depart="71.87" departLane="best" from="692242073#2" to="684472053#0"/>
    <trip id="veh185" type="veh_passenger" depart="72.26" departLane="best" from="689183213" to="684448602"/>
    <trip id="veh186" type="veh_passenger" depart="72.66" departLane="best" from="152376270#0" to="673988900"/>
    <trip id="veh187" type="veh_passenger" depart="73.05" departLane="best" departSpeed="max" from="-1076066931" to="154584038#3"/>
    <trip id="veh188" type="veh_passenger" depart="73.44" departLane="best" from="380777345#3" to="684266490"/>
    <trip id="veh189" type="veh_passenger" depart="73.83" departLane="best" from="684469027#1-AddedOffRampEdge" to="380778997#5"/>
    <trip id="veh191" type="veh_passenger" depart="74.61" departLane="best" from="380778995#2-AddedOffRampEdge" to="692068753"/>
    <trip id="veh192" type="veh_passenger" depart="75.00" departLane="best" departSpeed="max" from="685510362" to="150834541#3-AddedOnRampEdge"/>
    <trip id="veh193" type="veh_passenger" depart="75.39" departLane="best" departSpeed="max" from="-673550703" to="51215358#2-AddedOnRampEdge"/>
    <trip id="veh194" type="veh_passenger" depart="75.78" departLane="best" from="684452059#0" to="155409954#1"/>
    <trip id="veh196" type="veh_passenger" depart="76.56" departLane="best" from="684469029#2-AddedOffRampEdge" to="151789417#0"/>
    <trip id="veh197" type="veh_passenger" depart="76.95" departLane="best" departSpeed="max" from="150269175" to="-152376326"/>
    <trip id="veh198" type="veh_passenger" depart="77.34" departLane="best" from="150834541#4-AddedOffRampEdge" to="380778997#5"/>
    <trip id="veh200" type="veh_passenger" depart="78.12" departLane="best" departSpeed="max" from="155410061" to="684452062"/>
    <trip id="veh201" type="veh_passenger" depart="78.51" departLane="best" from="149966686#0" to="684615389"/>
    <trip id="veh202" type="veh_passenger" depart="78.91" departLane="best" from="422905697#0" to="-151790539"/>
    <trip id="veh204" type="veh_passenger" depart="79.69" departLane="best" departSpeed="max" from="685485410#0" to="685497198#2-AddedOffRampEdge"/>
    <trip id="veh206" type="veh_passenger" depart="80.47" departLane="best" departSpeed="max" from="149966685#0" to="704877679"/>
    <trip id="veh208" type="veh_passenger" depart="81.25" departLane="best" from="150834553#0" to="688420809#3-AddedOnRampEdge"/>
    <trip id="veh209" type="veh_passenger" depart="81.64" departLane="best" from="380778981#3-AddedOnRampEdge" to="687156348#2"/>
    <trip id="veh211" type="veh_passenger" depart="82.42" departLane="best" from="684410266#0" to="704877678#2-AddedOnRampEdge"/>
    <trip id="veh212" type="veh_passenger" depart="82.81" departLane="best" from="689019917#0" to="684448602"/>
    <trip id="veh213" type="veh_passenger" depart="83.20" departLane="best" from="685453195" to="51215358#2"/>
    <trip id="veh215" type="veh_passenger" depart="83.98" departLane="best" from="689168419#0" to="685485411#2"/>
    <trip id="veh216" type="veh_passenger" depart="84.37" departLane="best" from="380778995#2-AddedOnRampEdge" to="684057565#0"/>
    <trip id="veh217" type="veh_passenger" depart="84.76" departLane="best" from="150834550#0" to="684469027#1"/>
    <trip id="veh218" type="veh_passenger" depart="85.16" departLane="best" from="685495893" to="672186845#0"/>
    <trip id="veh219" type="veh_passenger" depart="85.55" departLane="best" departSpeed="max" from="684449161" to="152560179"/>
    <trip id="veh221" type="veh_passenger" depart="86.33" departLane="best" from="151789407" to="155112428#1"/>
    <trip id="veh222" type="veh_passenger" depart="86.72" departLane="best" from="672186845#0" to="149818478#3"/>
    <trip id="veh223" type="veh_passenger" depart="87.11" departLane="best" departSpeed="max" from="150834527" to="684615389"/>
    <trip id="veh224" type="veh_passenger" depart="87.50" departLane="best" departSpeed="max" from="684615388" to="-673547933"/>
    <trip id="veh225" type="veh_passenger" depart="87.89" departLane="best" departSpeed="max" from="155410061" to="673988900"/>
    <trip id="veh226" type="veh_passenger" depart="88.28" departLane="best" from="155410149#1" to="151789411"/>
    <trip id="veh227" type="veh_passenger" depart="88.67" departLane="best" from="188529221#1-AddedOnRampEdge" to="692088076"/>
    <trip id="veh228" type="veh_passenger" depart="89.06" departLane="best" from="684266489#1" to="684615389"/>
    <trip id="veh231" type="veh_passenger" depart="90.23" departLane="best" departSpeed="max" from="154584038#0" to="685488039"/>
    <trip id="veh233" type="veh_passenger" depart="91.01" departLane="best" from="188529221#1" to="685485411#2"/>
    <trip id="veh234" type="veh_passenger" depart="91.41" departLane="best" from="673559478#1" to="684422002#2"/>
    <trip id="veh235" type="veh_passenger" depart="91.80" departLane="best" departSpeed="max" from="150834527" to="151789417#0"/>
    <trip id="veh236" type="veh_passenger" depart="92.19" departLane="best" from="380777345#3-AddedOffRampEdge" to="-154583820#0"/>
    <trip id="veh237" type="veh_passenger" depart="92.58" departLane="best" departSpeed="max" from="154583820#0" to="684473300"/>
    <trip id="veh239" type="veh_passenger" depart="93.36" departLane="best" departSpeed="max" from="684449161" to="-154583820#0"/>
    <trip id="veh240" type="veh_passenger" depart="93.75" departLane="best" from="155074923#0" to="684057565#1"/>
    <trip id="veh241" type="veh_passenger" depart="94.14" departLane="best" from="154583820#1" to="684469027#1-AddedOffRampEdge"/>
    <trip id="veh242" type="veh_passenger" depart="94.53" departLane="best" departSpeed="max" from="149818478#0" to="380778997#4"/>
    <trip id="veh243" type="veh_passenger" depart="94.92" departLane="best" departSpeed="max" from="-155409954#1" to="380776620#3"/>
    <trip id="veh244" type="veh_passenger" depart="95.31" departLane="best" departSpeed="max" from="150834527" to="155247508"/>
    <trip id="veh245" type="veh_passenger" depart="95.70" departLane="best" from="685488038" to="380776620#3"/>
    <trip id="veh250" type="veh_passenger" depart="97.66" departLane="best" from="684469027#1" to="685713751"/>
    <trip id="veh251" type="veh_passenger" depart="98.05" departLane="best" from="684469027#1-AddedOffRampEdge" to="685495889"/>
    <trip id="veh252" type="veh_passenger" depart="98.44" departLane="best" departSpeed="max" from="692291782#0" to="151789401#2"/>
    <trip id="veh255" type="veh_passenger" depart="99.61" departLane="best" departSpeed="max" from="684258300" to="151789417#0"/>
    <trip id="veh256" type="veh_passenger" depart="100.00" departLane="best" from="684473302#1" to="685497198#2-AddedOffRampEdge"/>
    <trip id="veh257" type="veh_passenger" depart="100.39" departLane="best" departSpeed="max" from="149966685#0" to="684422002#2-AddedOffRampEdge"/>
    <trip id="veh258" type="veh_passenger" depart="100.78" departLane="best" departSpeed="max" from="685485410#0" to="137280867#2"/>
    <trip id="veh259" type="veh_passenger" depart="101.17" departLane="best" from="686973491" to="704941090"/>
    <trip id="veh260" type="veh_passenger" depart="101.56" departLane="best" from="137280867#0" to="152560148"/>
    <trip id="veh261" type="veh_passenger" depart="101.95" departLane="best" departSpeed="max" from="152376385" to="684472053#0"/>
    <trip id="veh262" type="veh_passenger" depart="102.34" departLane="best" departSpeed="max" from="692295170" to="380777345#8"/>
    <trip id="veh264" type="veh_passenger" depart="103.12" departLane="best" from="684473300" to="684452061"/>
    <trip id="veh265" type="veh_passenger" depart="103.51" departLane="best" departSpeed="max" from="-704877679" to="685497198#2-AddedOnRampEdge"/>
    <trip id="veh268" type="veh_passenger" depart="104.69" departLane="best" from="685497198#2-AddedOnRampEdge" to="155409960#2"/>
    <trip id="veh269" type="veh_passenger" depart="105.08" departLane="best" from="685453199#0" to="380776620#3"/>
    <trip id="veh273" type="veh_passenger" depart="106.64" departLane="best" departSpeed="max" from="684615388" to="380778981#3-AddedOnRampEdge"/>
    <trip id="veh274" type="veh_passenger" depart="107.03" departLane="best" from="685453199#3-AddedOffRampEdge" to="704941090"/>
    <trip id="veh275" type="veh_passenger" depart="107.42" departLane="best" from="151789401#2" to="687156348#2"/>
    <trip id="veh276" type="veh_passenger" depart="107.81" departLane="best" from="672186845#0" to="40117800-AddedOffRampEdge"/>
    <trip id="veh277" type="veh_passenger" depart="108.20" departLane="best" from="380777345#5" to="685485411#0"/>
    <trip id="veh278" type="veh_passenger" depart="108.59" departLane="best" from="151789401#2" to="688430089#1"/>
    <trip id="veh280" type="veh_passenger" depart="109.37" departLane="best" from="689019914#2" to="151790539"/>
    <trip id="veh281" type="veh_passenger" depart="109.76" departLane="best" from="380778995#0" to="684448602"/>
    <trip id="veh282" type="veh_passenger" depart="110.16" departLane="best" from="154584038#3" to="-154583820#0"/>
    <trip id="veh284" type="veh_passenger" depart="110.94" departLane="best" departSpeed="max" from="150834527" to="687156348#1"/>
    <trip id="veh285" type="veh_passenger" depart="111.33" departLane="best" departSpeed="max" from="154583820#0" to="689183220#0"/>
    <trip id="veh287" type="veh_passenger" depart="112.11" departLane="best" from="138306650#3" to="704877678#2"/>
    <trip id="veh288" type="veh_passenger" depart="112.50" departLane="best" departSpeed="max" from="-673550703" to="685453199#3-AddedOffRampEdge"/>
    <trip id="veh289" type="veh_passenger" depart="112.89" departLane="best" from="40117800-AddedOffRampEdge" to="685497198#0"/>
    <trip id="veh290" type="veh_passenger" depart="113.28" departLane="best" from="684473300" to="684469027#1-AddedOnRampEdge"/>
    <trip id="veh291" type="veh_passenger" depart="113.67" departLane="best" from="40117801" to="686973492"/>
    <trip id="veh292" type="veh_passenger" depart="114.06" departLane="best" from="-688420810" to="151789417#0"/>
    <trip id="veh293" type="veh_passenger" depart="114.45" departLane="best" from="684473300-AddedOffRampEdge" to="155074912"/>
    <trip id="veh294" type="veh_passenger" depart="114.84" departLane="best" from="685469598" to="380778997#5"/>
    <trip id="veh295" type="veh_passenger" depart="115.23" departLane="best" departSpeed="max" from="672178561" to="380778978"/>
    <trip id="veh296" type="veh_passenger" depart="115.62" departLane="best" departSpeed="max" from="685485410#0" to="155409954#1"/>
    <trip id="veh297" type="veh_passenger" depart="116.01" departLane="best" departSpeed="max" from="684615388" to="152560121"/>
    <trip id="veh298" type="veh_passenger" depart="116.41" departLane="best" from="151789393#0" to="137280867#2-AddedOnRampEdge"/>
    <trip id="veh299" type="veh_passenger" depart="116.80" departLane="best" from="149966685#1" to="137280867#2-AddedOffRampEdge"/>
    <trip id="veh300" type="veh_passenger" depart="117.19" departLane="best" departSpeed="max" from="672178561" to="685497198#1"/>
    <trip id="veh301" type="veh_passenger" depart="117.58" departLane="best" departSpeed="max" from="149966685#0" to="151789417#0"/>
    <trip id="veh302" type="veh_passenger" depart="117.97" departLane="best" from="40117800" to="685453199#3-AddedOffRampEdge"/>
    <trip id="veh304" type="veh_passenger" depart="118.75" departLane="best" from="151790535#0" to="1018489598"/>
    <trip id="veh305" type="veh_passenger" depart="119.14" departLane="best" from="149966686#0" to="151789419#0"/>
    <trip id="veh307" type="veh_passenger" depart="119.92" departLane="best" departSpeed="max" from="672178561" to="152560179"/>
    <trip id="veh308" type="veh_passenger" depart="120.31" departLane="best" from="704877678#2-AddedOnRampEdge" to="673988900"/>
    <trip id="veh309" type="veh_passenger" depart="120.70" departLane="best" from="684473300-AddedOnRampEdge" to="138306650#3"/>
    <trip id="veh310" type="veh_passenger" depart="121.09" departLane="best" from="688420317#0" to="-422905697#1"/>
    <trip id="veh311" type="veh_passenger" depart="121.48" departLane="best" from="688420809#3-AddedOnRampEdge" to="684264396#0"/>
    <trip id="veh312" type="veh_passenger" depart="121.87" departLane="best" from="380778995#1" to="380778983#2-AddedOnRampEdge"/>
    <trip id="veh313" type="veh_passenger" depart="122.26" departLane="best" departSpeed="max" from="149966685#0" to="-422922132#0"/>
    <trip id="veh314" type="veh_passenger" depart="122.66" departLane="best" from="692242073#2" to="380778997#5"/>
    <trip id="veh315" type="veh_passenger" depart="123.05" departLane="best" from="686973491" to="380777345#9"/>