<?xml version="1.0" encoding="UTF-8"?>

<!-- generated on 2024-05-20 04:17:50.275116 by osmWebWizard.py UNKNOWN
<configuration>
    <net-file value="/home/mrprodigy/Documents/new_trial/nets/7th-area/2024-05-20-04-17-48/osm.net.xml.gz"/>
    <output-trip-file value="/home/mrprodigy/Documents/new_trial/nets/7th-area/2024-05-20-04-17-48/osm.passenger.trips.xml"/>
    <route-file value="/home/mrprodigy/Documents/new_trial/nets/7th-area/2024-05-20-04-17-48/osm.passenger.rou.xml"/>
    <prefix value="veh"/>
    <trip-attributes value="departLane=&quot;best&quot;"/>
    <fringe-start-attributes value="departSpeed=&quot;max&quot;"/>
    <vehicle-class value="passenger"/>
    <lanes value="True"/>
    <fringe-factor value="3"/>
    <allow-fringe.min-length value="1000.0"/>
    <via-edge-types value="highway.motorway,highway.motorway_link,highway.trunk_link,highway.primary_link,highway.secondary_link,highway.tertiary_link"/>
    <min-distance value="300.0"/>
    <min-distance.fringe value="10.0"/>
    <remove-loops value="True"/>
    <validate value="True"/>
    <insertion-density value="40.0"/>
</configuration>
-->

<!-- generated on 2024-05-20 04:17:49 by Eclipse SUMO duarouter Version 1.20.0
<configuration xmlns:xsi="http://www.w3.org/2001/XMLSchema-instance" xsi:noNamespaceSchemaLocation="http://sumo.dlr.de/xsd/duarouterConfiguration.xsd">

    <input>
        <net-file value="/home/mrprodigy/Documents/new_trial/nets/7th-area/2024-05-20-04-17-48/osm.net.xml.gz"/>
        <route-files value="/home/mrprodigy/Documents/new_trial/nets/7th-area/2024-05-20-04-17-48/osm.passenger.trips.xml"/>
    </input>

    <output>
        <output-file value="/home/mrprodigy/Documents/new_trial/nets/7th-area/2024-05-20-04-17-48/osm.passenger.trips.xml.tmp"/>
        <alternatives-output value="NUL"/>
        <write-trips value="true"/>
    </output>

    <processing>
        <remove-loops value="true"/>
    </processing>

    <time>
        <begin value="0.0"/>
        <end value="3600.0"/>
    </time>

    <report>
        <no-warnings value="true"/>
        <ignore-errors value="true"/>
        <no-step-log value="true"/>
    </report>

</configuration>
-->

<routes xmlns:xsi="http://www.w3.org/2001/XMLSchema-instance" xsi:noNamespaceSchemaLocation="http://sumo.dlr.de/xsd/routes_file.xsd">
    <vType id="veh_passenger" vClass="passenger"/>
    <trip id="veh0" type="veh_passenger" depart="0.00" departLane="best" from="32529421#4" to="-149966697#4"/>
    <trip id="veh1" type="veh_passenger" depart="1.10" departLane="best" departSpeed="max" from="673856565#0" to="-666800494#3"/>
    <trip id="veh2" type="veh_passenger" depart="2.20" departLane="best" from="691531819#1" to="-150990472#2"/>
    <trip id="veh3" type="veh_passenger" depart="3.30" departLane="best" from="150990401#1" to="-149966697#6"/>
    <trip id="veh5" type="veh_passenger" depart="5.51" departLane="best" from="392578525#2" to="-151566424"/>
    <trip id="veh6" type="veh_passenger" depart="6.61" departLane="best" from="-392578525#1" to="32485949"/>
    <trip id="veh8" type="veh_passenger" depart="8.81" departLane="best" from="689213925#0" to="673822476"/>
    <trip id="veh9" type="veh_passenger" depart="9.91" departLane="best" from="138553873#2" to="-151566531"/>
    <trip id="veh10" type="veh_passenger" depart="11.02" departLane="best" from="707247436#2" to="-149966697#4"/>
    <trip id="veh13" type="veh_passenger" depart="14.32" departLane="best" departSpeed="max" from="150948633#0" to="151566505"/>
    <trip id="veh14" type="veh_passenger" depart="15.42" departLane="best" departSpeed="max" from="690553696" to="32485975"/>
    <trip id="veh15" type="veh_passenger" depart="16.52" departLane="best" from="691530136" to="154286733#1"/>
    <trip id="veh16" type="veh_passenger" depart="17.62" departLane="best" from="666818455#1" to="150990404"/>
    <trip id="veh17" type="veh_passenger" depart="18.73" departLane="best" departSpeed="max" from="-392578525#4" to="692054567"/>
    <trip id="veh18" type="veh_passenger" depart="19.83" departLane="best" from="150990412#2" to="-666800494#3"/>
    <trip id="veh19" type="veh_passenger" depart="20.93" departLane="best" from="-150990471#0" to="-691531946#0"/>
    <trip id="veh20" type="veh_passenger" depart="22.03" departLane="best" from="32529421#1" to="150948633#1"/>
    <trip id="veh21" type="veh_passenger" depart="23.13" departLane="best" from="150948598" to="-392578528"/>
    <trip id="veh22" type="veh_passenger" depart="24.23" departLane="best" from="-666818455#0" to="691748402"/>
    <trip id="veh23" type="veh_passenger" depart="25.33" departLane="best" from="-392578525#1" to="32485966#2"/>
    <trip id="veh27" type="veh_passenger" depart="29.74" departLane="best" departSpeed="max" from="691485852#0" to="687669225#0"/>
    <trip id="veh28" type="veh_passenger" depart="30.84" departLane="best" departSpeed="max" from="-392578525#4" to="-150957641"/>
    <trip id="veh30" type="veh_passenger" depart="33.05" departLane="best" from="-32529421#3" to="692054567"/>
    <trip id="veh31" type="veh_passenger" depart="34.15" departLane="best" departSpeed="max" from="691531810" to="1205124700"/>
    <trip id="veh32" type="veh_passenger" depart="35.25" departLane="best" from="392752376#1" to="150957635"/>
    <trip id="veh33" type="veh_passenger" depart="36.35" departLane="best" departSpeed="max" from="691534971#0" to="150990419#3"/>
    <trip id="veh34" type="veh_passenger" depart="37.45" departLane="best" from="-666818454#3" to="-673174007#0"/>
    <trip id="veh35" type="veh_passenger" depart="38.55" departLane="best" departSpeed="max" from="154286728" to="673856558"/>
    <trip id="veh36" type="veh_passenger" depart="39.65" departLane="best" from="32485952#5" to="691531818#1"/>
    <trip id="veh37" type="veh_passenger" depart="40.76" departLane="best" from="150948633#2" to="392752378#3"/>
    <trip id="veh38" type="veh_passenger" depart="41.86" departLane="best" from="708939184" to="150990501"/>
    <trip id="veh39" type="veh_passenger" depart="42.96" departLane="best" from="-150990419#1" to="150990404"/>
    <trip id="veh40" type="veh_passenger" depart="44.06" departLane="best" from="-150990472#2" to="32507704"/>
    <trip id="veh41" type="veh_passenger" depart="45.16" departLane="best" from="688215184#1" to="150990401#1"/>
    <trip id="veh42" type="veh_passenger" depart="46.26" departLane="best" departSpeed="max" from="-150978462" to="150948636"/>
    <trip id="veh43" type="veh_passenger" depart="47.36" departLane="best" from="708939182#0" to="151566331"/>
    <trip id="veh45" type="veh_passenger" depart="49.57" departLane="best" from="141032890#1" to="673856565#2"/>
    <trip id="veh46" type="veh_passenger" depart="50.67" departLane="best" from="478981239#0" to="-151566353#3"/>
    <trip id="veh47" type="veh_passenger" depart="51.77" departLane="best" from="-666818455#0" to="392578525#1"/>
    <trip id="veh48" type="veh_passenger" depart="52.87" departLane="best" from="150990473#0" to="150990404"/>
    <trip id="veh49" type="veh_passenger" depart="53.97" departLane="best" from="150990427" to="707247437#0"/>
    <trip id="veh50" type="veh_passenger" depart="55.08" departLane="best" departSpeed="max" from="691531810" to="673856558"/>
    <trip id="veh52" type="veh_passenger" depart="57.28" departLane="best" departSpeed="max" from="691534971#0" to="691530134"/>
    <trip id="veh56" type="veh_passenger" depart="61.68" departLane="best" from="687669225#0" to="151566331"/>
    <trip id="veh58" type="veh_passenger" depart="63.89" departLane="best" departSpeed="max" from="-141032891" to="691748397"/>
    <trip id="veh59" type="veh_passenger" depart="64.99" departLane="best" from="691531815#0" to="689213925#1-AddedOffRampEdge"/>
    <trip id="veh61" type="veh_passenger" depart="67.19" departLane="best" departSpeed="max" from="691531810" to="707247436#0"/>
    <trip id="veh62" type="veh_passenger" depart="68.29" departLane="best" departSpeed="max" from="-150990414#1" to="-150990473#0"/>
    <trip id="veh63" type="veh_passenger" depart="69.39" departLane="best" from="-150990404" to="687435990"/>
    <trip id="veh64" type="veh_passenger" depart="70.50" departLane="best" from="687196294" to="-151566353#6"/>
    <trip id="veh65" type="veh_passenger" depart="71.60" departLane="best" from="-150990471#2" to="-151566482"/>
    <trip id="veh66" type="veh_passenger" depart="72.70" departLane="best" from="-666818454#3" to="691530135"/>
    <trip id="veh67" type="veh_passenger" depart="73.80" departLane="best" from="150990401#1-AddedOnRampEdge" to="392752376#1"/>
    <trip id="veh69" type="veh_passenger" depart="76.00" departLane="best" from="150990412#1" to="-150990502#2"/>
    <trip id="veh70" type="veh_passenger" depart="77.11" departLane="best" from="138553873#0" to="32485949"/>
    <trip id="veh71" type="veh_passenger" depart="78.21" departLane="best" from="150990409#0" to="32529421#2"/>
    <trip id="veh72" type="veh_passenger" depart="79.31" departLane="best" departSpeed="max" from="-392578525#4" to="691531821#1"/>
    <trip id="veh73" type="veh_passenger" depart="80.41" departLane="best" from="691530135" to="-150990440"/>
    <trip id="veh74" type="veh_passenger" depart="81.51" departLane="best" from="-392752376#2" to="478981239#2"/>
    <trip id="veh75" type="veh_passenger" depart="82.61" departLane="best" from="-392578521#0" to="-151566387"/>
    <trip id="veh76" type="veh_passenger" depart="83.71" departLane="best" from="691544462#0" to="151566533#3"/>
    <trip id="veh77" type="veh_passenger" depart="84.82" departLane="best" from="150990471#0" to="687669225#0-AddedOnRampEdge"/>
    <trip id="veh79" type="veh_passenger" depart="87.02" departLane="best" departSpeed="max" from="-150990419#3" to="150990401#4"/>
    <trip id="veh80" type="veh_passenger" depart="88.12" departLane="best" from="150990401#1-AddedOnRampEdge" to="150990446"/>
    <trip id="veh82" type="veh_passenger" depart="90.32" departLane="best" from="708939181#0" to="-150990498#1"/>
    <trip id="veh83" type="veh_passenger" depart="91.42" departLane="best" from="150948633#2-AddedOffRampEdge" to="-149966697#5"/>
    <trip id="veh84" type="veh_passenger" depart="92.53" departLane="best" from="691530133" to="-673174007#0"/>
    <trip id="veh86" type="veh_passenger" depart="94.73" departLane="best" from="150990401#1" to="-691531946#0"/>
    <trip id="veh87" type="veh_passenger" depart="95.83" departLane="best" from="478981239#3" to="691534971#1-AddedOffRampEdge"/>
    <trip id="veh88" type="veh_passenger" depart="96.93" departLane="best" departSpeed="max" from="150990414#0" to="691485852#2"/>
    <trip id="veh90" type="veh_passenger" depart="99.14" departLane="best" from="707247438#0" to="691544462#0"/>
    <trip id="veh91" type="veh_passenger" depart="100.24" departLane="best" from="691485852#2" to="-154286728"/>
    <trip id="veh92" type="veh_passenger" depart="101.34" departLane="best" from="150990473#1" to="-392752376#2"/>
    <trip id="veh93" type="veh_passenger" depart="102.44" departLane="best" from="150948633#2-AddedOffRampEdge" to="150990412#3"/>
    <trip id="veh94" type="veh_passenger" depart="103.54" departLane="best" departSpeed="max" from="150948633#0" to="708939183#2"/>
    <trip id="veh95" type="veh_passenger" depart="104.64" departLane="best" from="-666818454#3" to="687669225#0-AddedOnRampEdge"/>
    <trip id="veh96" type="veh_passenger" depart="105.74" departLane="best" from="150990427" to="150990401#1-AddedOnRampEdge"/>
    <trip id="veh97" type="veh_passenger" depart="106.85" departLane="best" from="707247436#2" to="709216019"/>
    <trip id="veh100" type="veh_passenger" depart="110.15" departLane="best" from="707247438#0" to="154286733#2"/>
    <trip id="veh102" type="veh_passenger" depart="112.35" departLane="best" departSpeed="max" from="-150957683#2" to="-32485936"/>
    <trip id="veh104" type="veh_passenger" depart="114.56" departLane="best" from="151566353#4" to="707270660"/>
    <trip id="veh105" type="veh_passenger" depart="115.66" departLane="best" from="-150990412#2" to="-32529421#0"/>
    <trip id="veh106" type="veh_passenger" depart="116.76" departLane="best" from="32485969" to="666800494#2"/>
    <trip id="veh107" type="veh_passenger" depart="117.86" departLane="best" from="-392752376#1" to="-151566353#2"/>
    <trip id="veh108" type="veh_passenger" depart="118.96" departLane="best" from="691531821#0" to="-673174007#0"/>
    <trip id="veh109" type="veh_passenger" depart="120.06" departLane="best" from="150957683#0" to="-32485936"/>
    <trip id="veh110" type="veh_passenger" depart="121.17" departLane="best" departSpeed="max" from="151566387" to="691748400"/>
    <trip id="veh111" type="veh_passenger" depart="122.27" departLane="best" departSpeed="max" from="40279986#0" to="151566515#1"/>
    <trip id="veh113" type="veh_passenger" depart="124.47" departLane="best" from="-150990409#1" to="150990419#3"/>
    <trip id="veh115" type="veh_passenger" depart="126.67" departLane="best" from="-150990409#1" to="-392752376#2"/>
    <trip id="veh116" type="veh_passenger" depart="127.77" departLane="best" from="-666818454#3" to="691748400"/>
    <trip id="veh117" type="veh_passenger" depart="128.88" departLane="best" from="691531816" to="691530140#1"/>
    <trip id="veh118" type="veh_passenger" depart="129.98" departLane="best" from="150948598" to="-151566533#0"/>
    <trip id="veh119" type="veh_passenger" depart="131.08" departLane="best" departSpeed="max" from="690553696" to="150990502#0"/>
    <trip id="veh121" type="veh_passenger" depart="133.28" departLane="best" from="392578528" to="-141032890#0"/>
    <trip id="veh122" type="veh_passenger" depart="134.38" departLane="best" departSpeed="max" from="40279986#0" to="691748404"/>
    <trip id="veh123" type="veh_passenger" depart="135.49" departLane="best" from="150990502#1" to="-151566353#0"/>
    <trip id="veh124" type="veh_passenger" depart="136.59" departLane="best" from="-150990472#0" to="151566515#0"/>
    <trip id="veh125" type="veh_passenger" depart="137.69" departLane="best" from="-673822476" to="32485966#0"/>
    <trip id="veh126" type="veh_passenger" depart="138.79" departLane="best" departSpeed="max" from="32529421#0" to="-673856558"/>
    <trip id="veh127" type="veh_passenger" depart="139.89" departLane="best" from="150990486#1" to="691531821#1"/>
    <trip id="veh128" type="veh_passenger" depart="140.99" departLane="best" from="691485852#1" to="150990486#0"/>
    <trip id="veh129" type="veh_passenger" depart="142.09" departLane="best" from="150990401#1-AddedOnRampEdge" to="-691531946#0"/>
    <trip id="veh130" type="veh_passenger" depart="143.20" departLane="best" from="-1205124699#0" to="687435992"/>
    <trip id="veh131" type="veh_passenger" depart="144.30" departLane="best" from="-32529421#3" to="-673823513"/>
    <trip id="veh132" type="veh_passenger" depart="145.40" departLane="best" from="673856565#1" to="151566505"/>
    <trip id="veh133" type="veh_passenger" depart="146.50" departLane="best" from="150990401#2" to="-141032890#0"/>
    <trip id="veh134" type="veh_passenger" depart="147.60" departLane="best" from="691531946#2" to="-151566424"/>
    <trip id="veh135" type="veh_passenger" depart="148.70" departLane="best" departSpeed="max" from="690553696" to="154286733#5"/>
    <trip id="veh136" type="veh_passenger" depart="149.80" departLane="best" departSpeed="max" from="-151566331" to="151566353#6"/>
    <trip id="veh138" type="veh_passenger" depart="152.01" departLane="best" from="688727321" to="691485852#1"/>
    <trip id="veh139" type="veh_passenger" depart="153.11" departLane="best" departSpeed="max" from="691531946#0" to="-392752376#0"/>
    <trip id="veh141" type="veh_passenger" depart="155.31" departLane="best" from="150948633#2-AddedOffRampEdge" to="32485979"/>
    <trip id="veh142" type="veh_passenger" depart="156.41" departLane="best" from="151566353#3" to="691748398"/>
    <trip id="veh143" type="veh_passenger" depart="157.52" departLane="best" from="691530140#1" to="708939180#0"/>
    <trip id="veh146" type="veh_passenger" depart="160.82" departLane="best" from="1018541508" to="691748398"/>
    <trip id="veh147" type="veh_passenger" depart="161.92" departLane="best" from="689213925#0" to="691508357"/>
    <trip id="veh150" type="veh_passenger" depart="165.23" departLane="best" departSpeed="max" from="691531810" to="691485852#1"/>
    <trip id="veh152" type="veh_passenger" depart="167.43" departLane="best" departSpeed="max" from="150990440" to="1074198362"/>
    <trip id="veh153" type="veh_passenger" depart="168.53" departLane="best" from="688727321" to="-666800494#0"/>
    <trip id="veh156" type="veh_passenger" depart="171.83" departLane="best" from="707247436#0" to="-691531946#0"/>
    <trip id="veh157" type="veh_passenger" depart="172.94" departLane="best" from="392578521#0" to="150957670#0"/>
    <trip id="veh158" type="veh_passenger" depart="174.04" departLane="best" from="708939180#0" to="-151566353#3"/>
    <trip id="veh159" type="veh_passenger" depart="175.14" departLane="best" from="691748398" to="-151566353#0"/>
    <trip id="veh161" type="veh_passenger" depart="177.34" departLane="best" from="707247437#0" to="-683277776"/>
    <trip id="veh162" type="veh_passenger" depart="178.44" departLane="best" from="150990472#1" to="150990404"/>
    <trip id="veh165" type="veh_passenger" depart="181.75" departLane="best" departSpeed="max" from="150948633#0" to="-154286733#1"/>
    <trip id="veh166" type="veh_passenger" depart="182.85" departLane="best" from="-666800494#2" to="673823513"/>
    <trip id="veh169" type="veh_passenger" depart="186.15" departLane="best" from="673856565#1" to="478981239#3"/>
    <trip id="veh171" type="veh_passenger" depart="188.36" departLane="best" departSpeed="max" from="40279986#0" to="141032891"/>
    <trip id="veh173" type="veh_passenger" depart="190.56" departLane="best" from="673822482" to="151566515#1"/>
    <trip id="veh175" type="veh_passenger" depart="192.76" departLane="best" from="150948633#2-AddedOffRampEdge" to="708939181#1"/>
    <trip id="veh176" type="veh_passenger" depart="193.87" departLane="best" departSpeed="max" from="-150990486#2" to="150978484"/>
    <trip id="veh178" type="veh_passenger" depart="196.07" departLane="best" from="691531946#1" to="32485972"/>
    <trip id="veh179" type="veh_passenger" depart="197.17" departLane="best" from="-691531946#1" to="151566430#1"/>
    <trip id="veh181" type="veh_passenger" depart="199.37" departLane="best" from="-150990404" to="154286733#3"/>
    <trip id="veh182" type="veh_passenger" depart="200.47" departLane="best" from="392752376#1" to="150990442"/>
    <trip id="veh183" type="veh_passenger" depart="201.58" departLane="best" from="150990412#3" to="-392752376#2"/>
    <trip id="veh184" type="veh_passenger" depart="202.68" departLane="best" from="150990471#1" to="691531821#0"/>
    <trip id="veh185" type="veh_passenger" depart="203.78" departLane="best" from="688727321" to="-154286732"/>
    <trip id="veh186" type="veh_passenger" depart="204.88" departLane="best" departSpeed="max" from="-150990414#1" to="150990502#1"/>
    <trip id="veh187" type="veh_passenger" depart="205.98" departLane="best" departSpeed="max" from="32529421#0" to="-149966697#3"/>
    <trip id="veh188" type="veh_passenger" depart="207.08" departLane="best" departSpeed="max" from="40279986#0" to="478981239#2"/>
    <trip id="veh189" type="veh_passenger" depart="208.18" departLane="best" from="154286733#5" to="-149966697#3"/>
    <trip id="veh190" type="veh_passenger" depart="209.29" departLane="best" from="-478981239#0" to="150990468"/>
    <trip id="veh191" type="veh_passenger" depart="210.39" departLane="best" from="150957668#1" to="-32529421#1"/>
    <trip id="veh192" type="veh_passenger" depart="211.49" departLane="best" from="154286733#1" to="-673798720"/>
    <trip id="veh193" type="veh_passenger" depart="212.59" departLane="best" from="150990502#0" to="666818455#1"/>
    <trip id="veh194" type="veh_passenger" depart="213.69" departLane="best" from="-392752376#2" to="-141032890#0"/>
    <trip id="veh196" type="veh_passenger" depart="215.90" departLane="best" from="-150990472#0" to="150990401#1-AddedOnRampEdge"/>
    <trip id="veh199" type="veh_passenger" depart="219.20" departLane="best" from="478981239#3" to="690553698"/>
    <trip id="veh200" type="veh_passenger" depart="220.30" departLane="best" departSpeed="max" from="150990440" to="688215184#0"/>
    <trip id="veh201" type="veh_passenger" depart="221.40" departLane="best" departSpeed="max" from="40279986#0" to="708939182#2"/>
    <trip id="veh202" type="veh_passenger" depart="222.50" departLane="best" from="32485969" to="707247437#0"/>
    <trip id="veh203" type="veh_passenger" depart="223.61" departLane="best" from="691531821#0" to="32485952#1"/>
    <trip id="veh204" type="veh_passenger" depart="224.71" departLane="best" from="673822482" to="150990498#0"/>
    <trip id="veh205" type="veh_passenger" depart="225.81" departLane="best" departSpeed="max" from="690553696" to="-151566430#1"/>
    <trip id="veh206" type="veh_passenger" depart="226.91" departLane="best" departSpeed="max" from="691531946#0" to="-690235213"/>
    <trip id="veh207" type="veh_passenger" depart="228.01" departLane="best" from="687196294" to="151566329#1"/>
    <trip id="veh208" type="veh_passenger" depart="229.11" departLane="best" from="150990412#1" to="-691748404"/>
    <trip id="veh209" type="veh_passenger" depart="230.21" departLane="best" from="-673822476" to="138553873#2"/>
    <trip id="veh210" type="veh_passenger" depart="231.32" departLane="best" from="151566515#2" to="-151566430#0"/>
    <trip id="veh211" type="veh_passenger" depart="232.42" departLane="best" from="-392578528" to="673174009"/>
    <trip id="veh212" type="veh_passenger" depart="233.52" departLane="best" departSpeed="max" from="673174007#0" to="-150990414#0"/>
    <trip id="veh213" type="veh_passenger" depart="234.62" departLane="best" from="-150957641" to="151566353#7"/>
    <trip id="veh214" type="veh_passenger" depart="235.72" departLane="best" from="150957670#0" to="-392578527"/>
    <trip id="veh215" type="veh_passenger" depart="236.82" departLane="best" from="150978445" to="691531821#0"/>
    <trip id="veh216" type="veh_passenger" depart="237.93" departLane="best" from="32485952#2" to="-673798720"/>
    <trip id="veh217" type="veh_passenger" depart="239.03" departLane="best" from="691530134" to="687435990"/>
    <trip id="veh218" type="veh_passenger" depart="240.13" departLane="best" departSpeed="max" from="150948633#0" to="-141032890#0"/>
    <trip id="veh221" type="veh_passenger" depart="243.43" departLane="best" from="-392578525#1" to="392752378#3"/>
    <trip id="veh222" type="veh_passenger" depart="244.53" departLane="best" from="150990412#0" to="-149966697#6"/>
    <trip id="veh223" type="veh_passenger" depart="245.64" departLane="best" from="1205124699#1" to="666818454#0"/>
    <trip id="veh224" type="veh_passenger" depart="246.74" departLane="best" from="150948633#2-AddedOffRampEdge" to="-154286728"/>
    <trip id="veh225" type="veh_passenger" depart="247.84" departLane="best" from="150990442" to="-151566353#6"/>
    <trip id="veh227" type="veh_passenger" depart="250.04" departLane="best" from="150948633#1" to="151566531"/>
    <trip id="veh229" type="veh_passenger" depart="252.24" departLane="best" from="-150957668#1" to="150948633#2-AddedOffRampEdge"/>
    <trip id="veh230" type="veh_passenger" depart="253.35" departLane="best" from="-32529421#4" to="141032891"/>
    <trip id="veh233" type="veh_passenger" depart="256.65" departLane="best" from="-666800494#0" to="-150990471#2"/>
    <trip id="veh234" type="veh_passenger" depart="257.75" departLane="best" departSpeed="max" from="-141032891" to="-151566353#5"/>
    <trip id="veh236" type="veh_passenger" depart="259.96" departLane="best" from="392578525#2" to="687669225#0-AddedOnRampEdge"/>
    <trip id="veh237" type="veh_passenger" depart="261.06" departLane="best" from="392578527" to="687435990"/>
    <trip id="veh239" type="veh_passenger" depart="263.26" departLane="best" departSpeed="max" from="-150990486#2" to="478981239#3"/>
    <trip id="veh240" type="veh_passenger" depart="264.36" departLane="best" from="-154286732" to="392752378#0"/>
    <trip id="veh241" type="veh_passenger" depart="265.46" departLane="best" from="-666818454#2" to="687435990"/>
    <trip id="veh244" type="veh_passenger" depart="268.77" departLane="best" departSpeed="max" from="690553696" to="707270660"/>
    <trip id="veh245" type="veh_passenger" depart="269.87" departLane="best" from="-150990472#1" to="-149966697#4"/>
    <trip id="veh248" type="veh_passenger" depart="273.17" departLane="best" from="-666800494#1" to="32507704"/>
    <trip id="veh249" type="veh_passenger" depart="274.27" departLane="best" from="-150990471#0" to="687435992"/>
    <trip id="veh250" type="veh_passenger" depart="275.38" departLane="best" from="691508357" to="32485952#5"/>
    <trip id="veh251" type="veh_passenger" depart="276.48" departLane="best" from="-150990486#0" to="708939181#2"/>
    <trip id="veh253" type="veh_passenger" depart="278.68" departLane="best" from="-150990404" to="150948633#2"/>
    <trip id="veh254" type="veh_passenger" depart="279.78" departLane="best" departSpeed="max" from="151566353#0" to="149966697#6"/>
    <trip id="veh255" type="veh_passenger" depart="280.88" departLane="best" from="691508357" to="689213925#0"/>
    <trip id="veh256" type="veh_passenger" depart="281.99" departLane="best" from="-150990471#2" to="707270660"/>
    <trip id="veh257" type="veh_passenger" depart="283.09" departLane="best" from="32529421#1" to="689213925#1"/>
    <trip id="veh258" type="veh_passenger" depart="284.19" departLane="best" departSpeed="max" from="673174007#0" to="-150990409#0"/>
    <trip id="veh259" type="veh_passenger" depart="285.29" departLane="best" departSpeed="max" from="673856565#0" to="707365245"/>
    <trip id="veh262" type="veh_passenger" depart="288.59" departLane="best" from="-150990412#0" to="673856566#4"/>
    <trip id="veh263" type="veh_passenger" depart="289.70" departLane="best" from="-666818455#1" to="690553698"/>
    <trip id="veh264" type="veh_passenger" depart="290.80" departLane="best" departSpeed="max" from="690553696" to="-150990472#2"/>
    <trip id="veh265" type="veh_passenger" depart="291.90" departLane="best" from="150990452" to="32485966#3"/>
    <trip id="veh266" type="veh_passenger" depart="293.00" departLane="best" departSpeed="max" from="150948633#0" to="-149966697#6"/>
    <trip id="veh267" type="veh_passenger" depart="294.10" departLane="best" from="691508357" to="32485979"/>
    <trip id="veh268" type="veh_passenger" depart="295.20" departLane="best" from="-32529421#4" to="687669225#2"/>
    <trip id="veh269" type="veh_passenger" depart="296.31" departLane="best" from="138553873#2" to="691531811"/>
    <trip id="veh270" type="veh_passenger" depart="297.41" departLane="best" from="-666818454#3" to="-691531946#0"/>
    <trip id="veh271" type="veh_passenger" depart="298.51" departLane="best" departSpeed="max" from="-1205124700" to="707247437#0"/>
    <trip id="veh272" type="veh_passenger" depart="299.61" departLane="best" departSpeed="max" from="-150990414#1" to="673856565#2"/>
    <trip id="veh273" type="veh_passenger" depart="300.71" departLane="best" from="-150990486#1" to="687435990"/>
    <trip id="veh274" type="veh_passenger" depart="301.81" departLane="best" from="-666800494#1" to="392578525#4"/>
    <trip id="veh275" type="veh_passenger" depart="302.91" departLane="best" from="150990498#0" to="687669225#2"/>
    <trip id="veh276" type="veh_passenger" depart="304.02" departLane="best" from="-666800494#2" to="1074198362"/>
    <trip id="veh277" type="veh_passenger" depart="305.12" departLane="best" from="32485952#2" to="150990462"/>
    <trip id="veh279" type="veh_passenger" depart="307.32" departLane="best" from="673856565#2" to="141032891"/>
    <trip id="veh280" type="veh_passenger" depart="308.42" departLane="best" from="-666818455#0" to="688215184#1"/>
    <trip id="veh281" type="veh_passenger" depart="309.52" departLane="best" from="-666800494#0" to="-151566353#2"/>
    <trip id="veh282" type="veh_passenger" depart="310.62" departLane="best" from="-154286732" to="-151566353#1"/>
    <trip id="veh285" type="veh_passenger" depart="313.93" departLane="best" from="150990473#1" to="673856566#0"/>
    <trip id="veh286" type="veh_passenger" depart="315.03" departLane="best" from="708834319#0" to="151566329#1"/>
    <trip id="veh287" type="veh_passenger" depart="316.13" departLane="best" from="154286733#1" to="-666800494#0"/>
    <trip id="veh288" type="veh_passenger" depart="317.23" departLane="best" from="-151566524#1" to="-149966697#0"/>
    <trip id="veh290" type="veh_passenger" depart="319.44" departLane="best" from="708834319#0" to="151566515#0"/>
    <trip id="veh291" type="veh_passenger" depart="320.54" departLane="best" from="666818454#1" to="-151566353#5"/>
    <trip id="veh292" type="veh_passenger" depart="321.64" departLane="best" departSpeed="max" from="691531810" to="150990473#2"/>
    <trip id="veh293" type="veh_passenger" depart="322.74" departLane="best" departSpeed="max" from="691531810" to="-154286732"/>
    <trip id="veh296" type="veh_passenger" depart="326.05" departLane="best" departSpeed="max" from="690553696" to="150957670#0"/>
    <trip id="veh297" type="veh_passenger" depart="327.15" departLane="best" from="150990409#2" to="-32529421#1"/>
    <trip id="veh298" type="veh_passenger" depart="328.25" departLane="best" from="150957670#0" to="151566515#2"/>
    <trip id="veh299" type="veh_passenger" depart="329.35" departLane="best" from="-154286732" to="-1020492058#2"/>
    <trip id="veh300" type="veh_passenger" depart="330.45" departLane="best" from="708939182#2" to="-151566353#1"/>
    <trip id="veh301" type="veh_passenger" depart="331.55" departLane="best" from="687196294" to="32485966#1"/>