<?xml version="1.0" encoding="UTF-8"?>

<!-- generated on 2024-05-18 15:53:56.827460 by osmWebWizard.py UNKNOWN
<configuration>
    <net-file value="/home/mrprodigy/Documents/amman-atsc-gp/nets/7th-area/2024-05-18-15-53-55/osm.net.xml.gz"/>
    <output-trip-file value="/home/mrprodigy/Documents/amman-atsc-gp/nets/7th-area/2024-05-18-15-53-55/osm.passenger.trips.xml"/>
    <route-file value="/home/mrprodigy/Documents/amman-atsc-gp/nets/7th-area/2024-05-18-15-53-55/osm.passenger.rou.xml"/>
    <prefix value="veh"/>
    <trip-attributes value="departLane=&quot;best&quot;"/>
    <fringe-start-attributes value="departSpeed=&quot;max&quot;"/>
    <vehicle-class value="passenger"/>
    <lanes value="True"/>
    <fringe-factor value="7"/>
    <allow-fringe.min-length value="1000.0"/>
    <via-edge-types value="highway.motorway,highway.motorway_link,highway.trunk_link,highway.primary_link,highway.secondary_link,highway.tertiary_link"/>
    <min-distance value="300.0"/>
    <min-distance.fringe value="10.0"/>
    <remove-loops value="True"/>
    <validate value="True"/>
    <insertion-density value="50.0"/>
</configuration>
-->

<!-- generated on 2024-05-18 15:53:56 by Eclipse SUMO duarouter Version 1.20.0
<configuration xmlns:xsi="http://www.w3.org/2001/XMLSchema-instance" xsi:noNamespaceSchemaLocation="http://sumo.dlr.de/xsd/duarouterConfiguration.xsd">

    <input>
        <net-file value="/home/mrprodigy/Documents/amman-atsc-gp/nets/7th-area/2024-05-18-15-53-55/osm.net.xml.gz"/>
        <route-files value="/home/mrprodigy/Documents/amman-atsc-gp/nets/7th-area/2024-05-18-15-53-55/osm.passenger.trips.xml"/>
    </input>

    <output>
        <output-file value="/home/mrprodigy/Documents/amman-atsc-gp/nets/7th-area/2024-05-18-15-53-55/osm.passenger.trips.xml.tmp"/>
        <alternatives-output value="NUL"/>
        <write-trips value="true"/>
    </output>

    <processing>
        <remove-loops value="true"/>
    </processing>

    <time>
        <begin value="0.0"/>
        <end value="3600.0"/>
    </time>

    <report>
        <no-warnings value="true"/>
        <ignore-errors value="true"/>
        <no-step-log value="true"/>
    </report>

</configuration>
-->

<routes xmlns:xsi="http://www.w3.org/2001/XMLSchema-instance" xsi:noNamespaceSchemaLocation="http://sumo.dlr.de/xsd/routes_file.xsd">
    <vType id="veh_passenger" vClass="passenger"/>
    <trip id="veh0" type="veh_passenger" depart="0.00" departLane="best" departSpeed="max" from="40279986#0" to="-149966697#5"/>
    <trip id="veh1" type="veh_passenger" depart="1.57" departLane="best" departSpeed="max" from="-673174009" to="-673174007#0"/>
    <trip id="veh2" type="veh_passenger" depart="3.15" departLane="best" from="-151566533#3" to="-151566515#1"/>
    <trip id="veh3" type="veh_passenger" depart="4.72" departLane="best" departSpeed="max" from="-1205124700" to="392752378#0"/>
    <trip id="veh4" type="veh_passenger" depart="6.29" departLane="best" departSpeed="max" from="40279986#0" to="32485952#2"/>
    <trip id="veh5" type="veh_passenger" depart="7.86" departLane="best" departSpeed="max" from="-154286733#2" to="32485966#3"/>
    <trip id="veh6" type="veh_passenger" depart="9.44" departLane="best" from="688727321" to="-149966697#0"/>
    <trip id="veh7" type="veh_passenger" depart="11.01" departLane="best" from="688727321" to="687435990"/>
    <trip id="veh8" type="veh_passenger" depart="12.58" departLane="best" from="1205124699#1" to="-151566543"/>
    <trip id="veh9" type="veh_passenger" depart="14.16" departLane="best" departSpeed="max" from="691786776" to="150948591"/>
    <trip id="veh10" type="veh_passenger" depart="15.73" departLane="best" from="-150990471#1" to="151566329#0"/>
    <trip id="veh11" type="veh_passenger" depart="17.30" departLane="best" from="691531946#2" to="392578521#1"/>
    <trip id="veh12" type="veh_passenger" depart="18.87" departLane="best" from="688727321" to="687435990"/>
    <trip id="veh14" type="veh_passenger" depart="22.02" departLane="best" departSpeed="max" from="150948633" to="32485952#5"/>
    <trip id="veh15" type="veh_passenger" depart="23.59" departLane="best" from="691534971#1-AddedOffRampEdge" to="32485966#2"/>
    <trip id="veh17" type="veh_passenger" depart="26.74" departLane="best" departSpeed="max" from="-154286733#2" to="1018541508"/>
    <trip id="veh18" type="veh_passenger" depart="28.31" departLane="best" departSpeed="max" from="-150990471#2" to="691531946#2"/>
    <trip id="veh19" type="veh_passenger" depart="29.89" departLane="best" departSpeed="max" from="40279986#0" to="150957683#2"/>
    <trip id="veh20" type="veh_passenger" depart="31.46" departLane="best" from="150948598" to="-666800494#0"/>
    <trip id="veh21" type="veh_passenger" depart="33.03" departLane="best" departSpeed="max" from="40279986#0" to="392578521#1"/>
    <trip id="veh24" type="veh_passenger" depart="37.75" departLane="best" departSpeed="max" from="154286733#0" to="-683277776"/>
    <trip id="veh25" type="veh_passenger" depart="39.32" departLane="best" departSpeed="max" from="691531946#0" to="687669225#2"/>
    <trip id="veh26" type="veh_passenger" depart="40.90" departLane="best" departSpeed="max" from="-154286733#2" to="-150957668#0"/>
    <trip id="veh28" type="veh_passenger" depart="44.04" departLane="best" departSpeed="max" from="691541853" to="1205124700"/>
    <trip id="veh29" type="veh_passenger" depart="45.61" departLane="best" departSpeed="max" from="691743823" to="151566329#1"/>
    <trip id="veh30" type="veh_passenger" depart="47.19" departLane="best" from="478981239#3" to="688215184#3"/>
    <trip id="veh31" type="veh_passenger" depart="48.76" departLane="best" departSpeed="max" from="154286733#0" to="-691531946#0"/>
    <trip id="veh32" type="veh_passenger" depart="50.33" departLane="best" departSpeed="max" from="150948633" to="-673174007#0"/>
    <trip id="veh33" type="veh_passenger" depart="51.91" departLane="best" from="707365246" to="-151566515#3"/>
    <trip id="veh34" type="veh_passenger" depart="53.48" departLane="best" from="-150990471#0" to="-150957683#1"/>
    <trip id="veh36" type="veh_passenger" depart="56.62" departLane="best" departSpeed="max" from="-150957683#2" to="150990419#2"/>
    <trip id="veh38" type="veh_passenger" depart="59.77" departLane="best" departSpeed="max" from="691786776" to="690553699"/>
    <trip id="veh40" type="veh_passenger" depart="62.92" departLane="best" departSpeed="max" from="673174007#0" to="32485952#0"/>
    <trip id="veh41" type="veh_passenger" depart="64.49" departLane="best" from="666800494#0" to="673174009"/>
    <trip id="veh42" type="veh_passenger" depart="66.06" departLane="best" from="-150990419#1" to="691748401"/>
    <trip id="veh43" type="veh_passenger" depart="67.63" departLane="best" departSpeed="max" from="691541853" to="-691531946#0"/>
    <trip id="veh45" type="veh_passenger" depart="70.78" departLane="best" from="-673856558" to="-666800494#3"/>
    <trip id="veh46" type="veh_passenger" depart="72.35" departLane="best" from="392752378#0" to="-151566543"/>
    <trip id="veh49" type="veh_passenger" depart="77.07" departLane="best" departSpeed="max" from="-1205124700" to="691534971#1-AddedOffRampEdge"/>
    <trip id="veh50" type="veh_passenger" depart="78.64" departLane="best" departSpeed="max" from="691743823" to="689213925#1"/>
    <trip id="veh51" type="veh_passenger" depart="80.22" departLane="best" from="-688215184#4" to="-150990419#0"/>
    <trip id="veh52" type="veh_passenger" depart="81.79" departLane="best" departSpeed="max" from="691743823" to="691748398"/>
    <trip id="veh53" type="veh_passenger" depart="83.36" departLane="best" departSpeed="max" from="-150990419#2" to="-151566353#2"/>
    <trip id="veh55" type="veh_passenger" depart="86.51" departLane="best" from="150990502#1" to="32485952#5"/>
    <trip id="veh56" type="veh_passenger" depart="88.08" departLane="best" from="478981239#3" to="690553699"/>
    <trip id="veh60" type="veh_passenger" depart="94.37" departLane="best" from="150957670#0" to="151566533#2"/>
    <trip id="veh61" type="veh_passenger" depart="95.95" departLane="best" departSpeed="max" from="-150990486#2" to="-673174007#0"/>
    <trip id="veh62" type="veh_passenger" depart="97.52" departLane="best" from="1018541508" to="32485966#3"/>
    <trip id="veh63" type="veh_passenger" depart="99.09" departLane="best" departSpeed="max" from="-154286733#2" to="-673174007#0"/>
    <trip id="veh64" type="veh_passenger" depart="100.67" departLane="best" departSpeed="max" from="-150957683#2" to="478981239#3"/>
    <trip id="veh65" type="veh_passenger" depart="102.24" departLane="best" departSpeed="max" from="-154286733#2" to="691530135"/>
    <trip id="veh66" type="veh_passenger" depart="103.81" departLane="best" from="691534971#1-AddedOffRampEdge" to="-150990472#2"/>
    <trip id="veh67" type="veh_passenger" depart="105.38" departLane="best" departSpeed="max" from="-392578521#1" to="673856558"/>
    <trip id="veh68" type="veh_passenger" depart="106.96" departLane="best" from="-151566533#0" to="-151566515#0"/>
    <trip id="veh69" type="veh_passenger" depart="108.53" departLane="best" departSpeed="max" from="691786776" to="32485952#5"/>
    <trip id="veh70" type="veh_passenger" depart="110.10" departLane="best" from="150990502#0" to="687669225#2"/>
    <trip id="veh71" type="veh_passenger" depart="111.68" departLane="best" from="688727321" to="-392578527"/>
    <trip id="veh72" type="veh_passenger" depart="113.25" departLane="best" departSpeed="max" from="-150990471#2" to="150990486#2"/>
    <trip id="veh73" type="veh_passenger" depart="114.82" departLane="best" departSpeed="max" from="150957668#0" to="151566329#1"/>
    <trip id="veh74" type="veh_passenger" depart="116.39" departLane="best" departSpeed="max" from="673856565#0" to="673856558"/>
    <trip id="veh75" type="veh_passenger" depart="117.97" departLane="best" from="707247437#0" to="-151566353#0"/>
    <trip id="veh76" type="veh_passenger" depart="119.54" departLane="best" from="691534971#1-AddedOffRampEdge" to="-690235213"/>
    <trip id="veh78" type="veh_passenger" depart="122.69" departLane="best" departSpeed="max" from="150990419#0" to="690553699"/>
    <trip id="veh79" type="veh_passenger" depart="124.26" departLane="best" from="691531946#2" to="-154286733#0"/>
    <trip id="veh81" type="veh_passenger" depart="127.40" departLane="best" departSpeed="max" from="150948633" to="-150990419#0"/>
    <trip id="veh82" type="veh_passenger" depart="128.98" departLane="best" departSpeed="max" from="150948633" to="707270660#1"/>
    <trip id="veh83" type="veh_passenger" depart="130.55" departLane="best" from="478981239#3" to="687669225#2"/>
    <trip id="veh84" type="veh_passenger" depart="132.12" departLane="best" departSpeed="max" from="154286733#0" to="687435990"/>
    <trip id="veh86" type="veh_passenger" depart="135.27" departLane="best" departSpeed="max" from="691786776" to="32485966#3"/>
    <trip id="veh87" type="veh_passenger" depart="136.84" departLane="best" departSpeed="max" from="151566543" to="687669225#0-AddedOnRampEdge"/>
    <trip id="veh88" type="veh_passenger" depart="138.41" departLane="best" from="-150957668#1" to="32485966#3"/>
    <trip id="veh90" type="veh_passenger" depart="141.56" departLane="best" departSpeed="max" from="-151566329#1" to="692047403"/>
    <trip id="veh91" type="veh_passenger" depart="143.13" departLane="best" departSpeed="max" from="-150990419#2" to="-392578527"/>
    <trip id="veh92" type="veh_passenger" depart="144.71" departLane="best" departSpeed="max" from="392578527" to="673856558"/>
    <trip id="veh93" type="veh_passenger" depart="146.28" departLane="best" departSpeed="max" from="-392578521#1" to="-151566353#7"/>
    <trip id="veh94" type="veh_passenger" depart="147.85" departLane="best" departSpeed="max" from="691743823" to="688215184#3"/>
    <trip id="veh95" type="veh_passenger" depart="149.43" departLane="best" departSpeed="max" from="392578527" to="392752378#0"/>
    <trip id="veh96" type="veh_passenger" depart="151.00" departLane="best" from="150948633-AddedOffRampEdge" to="32485966#3"/>
    <trip id="veh99" type="veh_passenger" depart="155.72" departLane="best" departSpeed="max" from="-392578521#1" to="150990471#0"/>
    <trip id="veh101" type="veh_passenger" depart="158.86" departLane="best" departSpeed="max" from="-150957683#2" to="151566329#1"/>
    <trip id="veh102" type="veh_passenger" depart="160.44" departLane="best" from="709650768" to="707365245"/>
    <trip id="veh103" type="veh_passenger" depart="162.01" departLane="best" from="478981239#3" to="691541852"/>
    <trip id="veh104" type="veh_passenger" depart="163.58" departLane="best" from="150948598" to="-151566543"/>
    <trip id="veh105" type="veh_passenger" depart="165.15" departLane="best" departSpeed="max" from="691531946#0" to="687435990"/>
    <trip id="veh106" type="veh_passenger" depart="166.73" departLane="best" from="392752378#3" to="707270660#1"/>
    <trip id="veh107" type="veh_passenger" depart="168.30" departLane="best" from="418297443#0" to="-149966697#0"/>
    <trip id="veh109" type="veh_passenger" depart="171.45" departLane="best" from="666800494#0" to="691541852"/>
    <trip id="veh110" type="veh_passenger" depart="173.02" departLane="best" departSpeed="max" from="-150990498#1" to="-151566353#3"/>
    <trip id="veh111" type="veh_passenger" depart="174.59" departLane="best" departSpeed="max" from="-150990471#2" to="32485952#5"/>
    <trip id="veh112" type="veh_passenger" depart="176.16" departLane="best" from="-666800494#3" to="392578521#1"/>
    <trip id="veh113" type="veh_passenger" depart="177.74" departLane="best" departSpeed="max" from="673856565#0" to="-478981239#1"/>
    <trip id="veh114" type="veh_passenger" depart="179.31" departLane="best" departSpeed="max" from="40279986#0" to="-691531946#0"/>
    <trip id="veh116" type="veh_passenger" depart="182.46" departLane="best" from="691531946#1" to="150990502#2"/>
    <trip id="veh117" type="veh_passenger" depart="184.03" departLane="best" departSpeed="max" from="150957668#0" to="-691531946#2"/>
    <trip id="veh119" type="veh_passenger" depart="187.17" departLane="best" departSpeed="max" from="40279986#0" to="-691531946#0"/>
    <trip id="veh121" type="veh_passenger" depart="190.32" departLane="best" departSpeed="max" from="150957668#0" to="-149966697#0"/>
    <trip id="veh122" type="veh_passenger" depart="191.89" departLane="best" departSpeed="max" from="-150957683#2" to="690553699"/>
    <trip id="veh123" type="veh_passenger" depart="193.47" departLane="best" departSpeed="max" from="691531946#0" to="32485966#3"/>
    <trip id="veh124" type="veh_passenger" depart="195.04" departLane="best" from="150990502#2" to="-151566482"/>
    <trip id="veh125" type="veh_passenger" depart="196.61" departLane="best" from="688215184#0" to="690553699"/>
    <trip id="veh126" type="veh_passenger" depart="198.19" departLane="best" departSpeed="max" from="691743823" to="-666800494#1"/>
    <trip id="veh127" type="veh_passenger" depart="199.76" departLane="best" from="-392752376#0" to="-151566353#0"/>
    <trip id="veh128" type="veh_passenger" depart="201.33" departLane="best" from="687435992" to="690553699"/>
    <trip id="veh129" type="veh_passenger" depart="202.90" departLane="best" departSpeed="max" from="150948633" to="392752378#3"/>
    <trip id="veh131" type="veh_passenger" depart="206.05" departLane="best" departSpeed="max" from="691541853" to="707247437#2"/>
    <trip id="veh132" type="veh_passenger" depart="207.62" departLane="best" from="688727321" to="690553699"/>
    <trip id="veh133" type="veh_passenger" depart="209.20" departLane="best" departSpeed="max" from="-1205124700" to="687435992"/>
    <trip id="veh136" type="veh_passenger" depart="213.91" departLane="best" from="688727321" to="-691531946#0"/>
    <trip id="veh137" type="veh_passenger" depart="215.49" departLane="best" from="687669225#0" to="-151566353#0"/>
    <trip id="veh138" type="veh_passenger" depart="217.06" departLane="best" departSpeed="max" from="691541853" to="690553699"/>
    <trip id="veh139" type="veh_passenger" depart="218.63" departLane="best" departSpeed="max" from="-154286733#2" to="689213925#1"/>
    <trip id="veh141" type="veh_passenger" depart="221.78" departLane="best" departSpeed="max" from="-1205124700" to="-392752376#0"/>
    <trip id="veh143" type="veh_passenger" depart="224.92" departLane="best" departSpeed="max" from="40279986#0" to="150990471#2"/>
    <trip id="veh144" type="veh_passenger" depart="226.50" departLane="best" from="707247436#2" to="32485952#0"/>
    <trip id="veh145" type="veh_passenger" depart="228.07" departLane="best" departSpeed="max" from="691786776" to="-151566353#3"/>
    <trip id="veh146" type="veh_passenger" depart="229.64" departLane="best" departSpeed="max" from="691786776" to="-392578522"/>
    <trip id="veh147" type="veh_passenger" depart="231.22" departLane="best" departSpeed="max" from="691786776" to="-691531946#0"/>
    <trip id="veh148" type="veh_passenger" depart="232.79" departLane="best" departSpeed="max" from="673856565#0" to="1205124700"/>
    <trip id="veh149" type="veh_passenger" depart="234.36" departLane="best" from="-392752376#2" to="151566524#0"/>
    <trip id="veh150" type="veh_passenger" depart="235.93" departLane="best" departSpeed="max" from="150948633" to="32485966#2"/>
    <trip id="veh151" type="veh_passenger" depart="237.51" departLane="best" from="-392752376#3" to="687435990"/>
    <trip id="veh156" type="veh_passenger" depart="245.37" departLane="best" from="-666800494#1" to="-149966697#5"/>
    <trip id="veh159" type="veh_passenger" depart="250.09" departLane="best" from="-691531946#1" to="150990471#2"/>
    <trip id="veh161" type="veh_passenger" depart="253.24" departLane="best" departSpeed="max" from="691786776" to="673856558"/>
    <trip id="veh162" type="veh_passenger" depart="254.81" departLane="best" departSpeed="max" from="691743823" to="392752376#2"/>
    <trip id="veh163" type="veh_passenger" depart="256.38" departLane="best" from="688215184#0" to="32485952#5"/>
    <trip id="veh165" type="veh_passenger" depart="259.53" departLane="best" departSpeed="max" from="150957668#0" to="32485966#3"/>
    <trip id="veh166" type="veh_passenger" depart="261.10" departLane="best" from="478981239#0" to="151566329#1"/>
    <trip id="veh167" type="veh_passenger" depart="262.67" departLane="best" departSpeed="max" from="150990419#0" to="-666800494#3"/>
    <trip id="veh168" type="veh_passenger" depart="264.25" departLane="best" from="150990502#0" to="691530133"/>
    <trip id="veh169" type="veh_passenger" depart="265.82" departLane="best" from="688215184#0" to="-154286733#0"/>
    <trip id="veh170" type="veh_passenger" depart="267.39" departLane="best" departSpeed="max" from="-150990419#2" to="151566531"/>
    <trip id="veh171" type="veh_passenger" depart="268.97" departLane="best" departSpeed="max" from="40279986#0" to="150948591"/>
    <trip id="veh172" type="veh_passenger" depart="270.54" departLane="best" from="691530132#0" to="687669225#2"/>
    <trip id="veh173" type="veh_passenger" depart="272.11" departLane="best" departSpeed="max" from="-392578521#1" to="151566331"/>
    <trip id="veh174" type="veh_passenger" depart="273.68" departLane="best" from="691534971#1" to="150990486#0"/>
    <trip id="veh177" type="veh_passenger" depart="278.40" departLane="best" from="478981239#1" to="-149966697#0"/>
    <trip id="veh179" type="veh_passenger" depart="281.55" departLane="best" departSpeed="max" from="-150990471#2" to="150990486#2"/>
    <trip id="veh180" type="veh_passenger" depart="283.12" departLane="best" departSpeed="max" from="-151566331" to="691766871"/>
    <trip id="veh183" type="veh_passenger" depart="287.84" departLane="best" from="-666800494#3" to="707270660#1"/>
    <trip id="veh184" type="veh_passenger" depart="289.41" departLane="best" departSpeed="max" from="392578527" to="691748399"/>
    <trip id="veh185" type="veh_passenger" depart="290.99" departLane="best" departSpeed="max" from="691743823" to="392578521#1"/>
    <trip id="veh186" type="veh_passenger" depart="292.56" departLane="best" departSpeed="max" from="673856565#0" to="151566515#1"/>
    <trip id="veh187" type="veh_passenger" depart="294.13" departLane="best" from="691530140#1" to="32485952#5"/>
    <trip id="veh188" type="veh_passenger" depart="295.70" departLane="best" departSpeed="max" from="691743823" to="687669225#0-AddedOnRampEdge"/>
    <trip id="veh189" type="veh_passenger" depart="297.28" departLane="best" from="150990502#1" to="-690235213"/>
    <trip id="veh190" type="veh_passenger" depart="298.85" departLane="best" departSpeed="max" from="-392578521#1" to="-666800494#3"/>
    <trip id="veh192" type="veh_passenger" depart="302.00" departLane="best" departSpeed="max" from="40279986#0" to="691531946#1"/>
    <trip id="veh193" type="veh_passenger" depart="303.57" departLane="best" from="-150990419#1" to="707270660#0"/>
    <trip id="veh194" type="veh_passenger" depart="305.14" departLane="best" departSpeed="max" from="151566543" to="-151566524#1"/>
    <trip id="veh195" type="veh_passenger" depart="306.71" departLane="best" departSpeed="max" from="-154286733#2" to="687435990"/>
    <trip id="veh197" type="veh_passenger" depart="309.86" departLane="best" departSpeed="max" from="150948633" to="32485952#1"/>
    <trip id="veh198" type="veh_passenger" depart="311.43" departLane="best" from="32485970#0" to="687435990"/>
    <trip id="veh199" type="veh_passenger" depart="313.01" departLane="best" departSpeed="max" from="150948633" to="-149966697#0"/>
    <trip id="veh200" type="veh_passenger" depart="314.58" departLane="best" departSpeed="max" from="149966697#0" to="687669225#2"/>
    <trip id="veh201" type="veh_passenger" depart="316.15" departLane="best" from="150948633-AddedOffRampEdge" to="687669225#0-AddedOnRampEdge"/>
    <trip id="veh203" type="veh_passenger" depart="319.30" departLane="best" departSpeed="max" from="-154286733#2" to="-673174007#0"/>
    <trip id="veh205" type="veh_passenger" depart="322.44" departLane="best" departSpeed="max" from="150948633" to="-154286733#0"/>
    <trip id="veh206" type="veh_passenger" depart="324.02" departLane="best" from="150990486#0" to="-151566482"/>
    <trip id="veh207" type="veh_passenger" depart="325.59" departLane="best" departSpeed="max" from="40279986#0" to="-149966697#6"/>
    <trip id="veh208" type="veh_passenger" depart="327.16" departLane="best" departSpeed="max" from="150948633" to="32485952#5"/>
    <trip id="veh209" type="veh_passenger" depart="328.74" departLane="best" departSpeed="max" from="-1205124700" to="673174009"/>
    <trip id="veh210" type="veh_passenger" depart="330.31" departLane="best" departSpeed="max" from="-150990498#1" to="151566329#1"/>
    <trip id="veh211" type="veh_passenger" depart="331.88" departLane="best" departSpeed="max" from="-150948591" to="-150990419#1"/>
    <trip id="veh212" type="veh_passenger" depart="333.45" departLane="best" from="-151566524#2" to="149966697#3"/>
    <trip id="veh215" type="veh_passenger" depart="338.17" departLane="best" from="-392752376#2" to="150990502#0"/>
    <trip id="veh217" type="veh_passenger" depart="341.32" departLane="best" departSpeed="max" from="40279986#0" to="687669225#2"/>
    <trip id="veh218" type="veh_passenger" depart="342.89" departLane="best" departSpeed="max" from="40279986#0" to="687669225#2"/>
    <trip id="veh219" type="veh_passenger" depart="344.46" departLane="best" departSpeed="max" from="-1205124700" to="-151566543"/>
    <trip id="veh220" type="veh_passenger" depart="346.04" departLane="best" from="32485952#0" to="-673174007#0"/>
    <trip id="veh224" type="veh_passenger" depart="352.33" departLane="best" from="150990472#0" to="-149966697#5"/>
    <trip id="veh226" type="veh_passenger" depart="355.47" departLane="best" departSpeed="max" from="691786776" to="150990471#1"/>
    <trip id="veh227" type="veh_passenger" depart="357.05" departLane="best" departSpeed="max" from="673856565#0" to="150990498#0"/>
    <trip id="veh228" type="veh_passenger" depart="358.62" departLane="best" departSpeed="max" from="-150990471#2" to="687669225#2"/>
    <trip id="veh229" type="veh_passenger" depart="360.19" departLane="best" from="691534971#1" to="392578521#1"/>
    <trip id="veh230" type="veh_passenger" depart="361.77" departLane="best" departSpeed="max" from="-150990486#2" to="707270660#1"/>
    <trip id="veh233" type="veh_passenger" depart="366.48" departLane="best" from="691534971#1" to="689213925#1"/>
    <trip id="veh234" type="veh_passenger" depart="368.06" departLane="best" departSpeed="max" from="-150990471#2" to="-692047403"/>
    <trip id="veh236" type="veh_passenger" depart="371.20" departLane="best" departSpeed="max" from="673856565#0" to="707247436#0"/>
    <trip id="veh237" type="veh_passenger" depart="372.78" departLane="best" from="-666800494#1" to="689213925#0"/>
    <trip id="veh238" type="veh_passenger" depart="374.35" departLane="best" departSpeed="max" from="151566543" to="-151566353#1"/>
    <trip id="veh239" type="veh_passenger" depart="375.92" departLane="best" from="150957668#1" to="687435990"/>
    <trip id="veh240" type="veh_passenger" depart="377.50" departLane="best" from="-666800494#0" to="690553699"/>
    <trip id="veh241" type="veh_passenger" depart="379.07" departLane="best" from="691530140#1" to="150990502#0"/>
    <trip id="veh242" type="veh_passenger" depart="380.64" departLane="best" departSpeed="max" from="691743823" to="688215184#1"/>
    <trip id="veh243" type="veh_passenger" depart="382.21" departLane="best" departSpeed="max" from="150948633" to="-150957641"/>
    <trip id="veh244" type="veh_passenger" depart="383.79" departLane="best" from="691534971#1" to="-392578527"/>
    <trip id="veh245" type="veh_passenger" depart="385.36" departLane="best" from="138553873#0" to="690553699"/>
    <trip id="veh248" type="veh_passenger" depart="390.08" departLane="best" departSpeed="max" from="-150990419#2" to="687435990"/>
    <trip id="veh249" type="veh_passenger" depart="391.65" departLane="best" departSpeed="max" from="151566353#0" to="687669225#2"/>
    <trip id="veh250" type="veh_passenger" depart="393.22" departLane="best" from="673822484" to="673174009"/>
    <trip id="veh252" type="veh_passenger" depart="396.37" departLane="best" from="-150990471#1" to="-673174007#0"/>
    <trip id="veh253" type="veh_passenger" depart="397.94" departLane="best" from="673822484" to="1205124700"/>
    <trip id="veh254" type="veh_passenger" depart="399.52" departLane="best" from="32485969" to="151566331"/>
    <trip id="veh258" type="veh_passenger" depart="405.81" departLane="best" from="-392752376#0" to="-151566353#7"/>
    <trip id="veh261" type="veh_passenger" depart="410.53" departLane="best" from="707247436#0" to="154286733#2"/>
    <trip id="veh262" type="veh_passenger" depart="412.10" departLane="best" departSpeed="max" from="-673174009" to="-151566353#0"/>
    <trip id="veh264" type="veh_passenger" depart="415.24" departLane="best" departSpeed="max" from="-151566331" to="-149966697#0"/>
    <trip id="veh268" type="veh_passenger" depart="421.54" departLane="best" departSpeed="max" from="691541853" to="-151566353#5"/>
    <trip id="veh269" type="veh_passenger" depart="423.11" departLane="best" departSpeed="max" from="691541853" to="32485966#0"/>
    <trip id="veh270" type="veh_passenger" depart="424.68" departLane="best" from="150990486#1" to="150990498#1"/>
    <trip id="veh272" type="veh_passenger" depart="427.83" departLane="best" departSpeed="max" from="691786776" to="151566331"/>
    <trip id="veh273" type="veh_passenger" depart="429.40" departLane="best" from="691530134" to="150990471#2"/>
    <trip id="veh274" type="veh_passenger" depart="430.97" departLane="best" departSpeed="max" from="-150957683#2" to="478981239#2"/>
    <trip id="veh275" type="veh_passenger" depart="432.55" departLane="best" departSpeed="max" from="-150948591" to="-151566543"/>
    <trip id="veh280" type="veh_passenger" depart="440.41" departLane="best" departSpeed="max" from="150990419#0" to="690553699"/>
    <trip id="veh281" type="veh_passenger" depart="441.98" departLane="best" from="707247437#2" to="-1205124699#1"/>
    <trip id="veh282" type="veh_passenger" depart="443.56" departLane="best" departSpeed="max" from="40279986#0" to="392578521#1"/>
    <trip id="veh285" type="veh_passenger" depart="448.28" departLane="best" from="478981239#3" to="-151566543"/>
    <trip id="veh289" type="veh_passenger" depart="454.57" departLane="best" departSpeed="max" from="-154286733#2" to="687435990"/>
    <trip id="veh291" type="veh_passenger" depart="457.71" departLane="best" from="-673822476" to="691534971#1-AddedOffRampEdge"/>
    <trip id="veh293" type="veh_passenger" depart="460.86" departLane="best" from="478981239#3" to="691541852"/>
    <trip id="veh294" type="veh_passenger" depart="462.43" departLane="best" departSpeed="max" from="150957668#0" to="32485952#2"/>
    <trip id="veh295" type="veh_passenger" depart="464.00" departLane="best" departSpeed="max" from="40279986#0" to="691530137"/>
    <trip id="veh296" type="veh_passenger" depart="465.58" departLane="best" from="691530137" to="-150990472#2"/>
    <trip id="veh299" type="veh_passenger" depart="470.30" departLane="best" from="673822482" to="687435990"/>
    <trip id="veh300" type="veh_passenger" depart="471.87" departLane="best" departSpeed="max" from="691786776" to="151566482"/>
    <trip id="veh304" type="veh_passenger" depart="478.16" departLane="best" from="-150990471#0" to="692054567"/>
    <trip id="veh305" type="veh_passenger" depart="479.73" departLane="best" departSpeed="max" from="691531946#0" to="32485966#1"/>
    <trip id="veh306" type="veh_passenger" depart="481.31" departLane="best" departSpeed="max" from="691786776" to="709650768"/>
    <trip id="veh307" type="veh_passenger" depart="482.88" departLane="best" departSpeed="max" from="673174007#0" to="-691531946#0"/>